24
hello
 O   -0.6679    1.1587    0.2570
 O   -0.8870   -2.4483   -0.3388
 O    1.8623   -2.0693    0.4696
 O    2.8609    0.5414   -0.4619
 O    1.1222    2.6552    0.2574
 O   -3.3742    0.9717   -0.1865
 C   -0.3727   -1.2470    0.2300
 C    1.0856   -1.0709   -0.1940
 C   -1.2211   -0.0621   -0.2375
 C    1.6082    0.3151    0.1839
 C    0.6388    1.4132   -0.2534
 C   -2.6550   -0.1577    0.2740
 H   -0.4248   -1.3522    1.3206
 H    1.2066   -1.2487   -1.2697
 H   -1.2548   -0.0098   -1.3343
 H    1.7952    0.3598    1.2636
 H    0.5967    1.5141   -1.3440
 H   -2.6916   -0.1535    1.3685
 H   -3.1564   -1.0581   -0.0922
 H   -0.8514   -2.3615   -1.3066
 H    1.4973   -2.9356    0.2200
 H    2.7165    0.4989   -1.4227
 H    1.4876    2.5033    1.1448
 H   -2.9192    1.7652    0.1440
