16
sec-butylamine
N      0.6038   -1.3908   -0.1468 
C      0.4801   -0.0159    0.3372 
C     -0.7605    0.6751   -0.2508 
C      1.7465    0.7534   -0.0364 
C     -2.0699   -0.0217    0.0968 
H      0.3951   -0.0374    1.4304 
H     -0.8066    1.7049    0.1251 
H     -0.6753    0.7435   -1.3428 
H      1.6958    1.7832    0.3334 
H      1.8887    0.7926   -1.1223 
H      2.6350    0.2879    0.4046 
H     -2.1429   -1.0056   -0.3760 
H     -2.1730   -0.1465    1.1794 
H     -2.9164    0.5761   -0.2565 
H     -0.1759   -1.9504    0.1951 
H      1.4458   -1.8163    0.2394 
